 Abaqus/Standard 2023.HF4                  DATE 19-Nov-2024 TIME 12:42:04
 SUMMARY OF JOB INFORMATION:
 STEP  INC ATT SEVERE EQUIL TOTAL  TOTAL      STEP       INC OF       DOF    IF
               DISCON ITERS ITERS  TIME/    TIME/LPF    TIME/LPF    MONITOR RIKS
               ITERS               FREQ
   1     1   1     0     1     1  120.       120.       120.0     
   1     2   1     0     1     1  240.       240.       120.0     
   1     3   1     0     1     1  360.       360.       120.0     
   1     4   1     0     1     1  480.       480.       120.0     
   1     5   1     0     1     1  600.       600.       120.0     
   1     6   1     0     1     1  720.       720.       120.0     
   1     7   1     0     1     1  840.       840.       120.0     
   1     8   1     0     1     1  960.       960.       120.0     
   1     9   1     0     1     1  1.08e+03   1.08e+03   120.0     
   1    10   1     0     1     1  1.20e+03   1.20e+03   120.0     
   1    11   1     0     1     1  1.32e+03   1.32e+03   120.0     
   1    12   1     0     1     1  1.44e+03   1.44e+03   120.0     
   1    13   1     0     1     1  1.56e+03   1.56e+03   120.0     
   1    14   1     0     1     1  1.68e+03   1.68e+03   120.0     
   1    15   1     0     1     1  1.80e+03   1.80e+03   120.0     
   1    16   1     0     1     1  1.92e+03   1.92e+03   120.0     
   1    17   1     0     1     1  2.04e+03   2.04e+03   120.0     
   1    18   1     0     1     1  2.16e+03   2.16e+03   120.0     
   1    19   1     0     1     1  2.28e+03   2.28e+03   120.0     
   1    20   1     0     1     1  2.40e+03   2.40e+03   120.0     
   1    21   1     0     1     1  2.52e+03   2.52e+03   120.0     
   1    22   1     0     1     1  2.64e+03   2.64e+03   120.0     
   1    23   1     0     1     1  2.76e+03   2.76e+03   120.0     
   1    24   1     0     1     1  2.88e+03   2.88e+03   120.0     
   1    25   1     0     1     1  3.00e+03   3.00e+03   120.0     
   1    26   1     0     1     1  3.12e+03   3.12e+03   120.0     
   1    27   1     0     1     1  3.24e+03   3.24e+03   120.0     
   1    28   1     0     1     1  3.36e+03   3.36e+03   120.0     
   1    29   1     0     1     1  3.48e+03   3.48e+03   120.0     
   1    30   1     0     1     1  3.60e+03   3.60e+03   120.0     
   1    31   1     0     1     1  3.72e+03   3.72e+03   120.0     
   1    32   1     0     1     1  3.84e+03   3.84e+03   120.0     
   1    33   1     0     1     1  3.96e+03   3.96e+03   120.0     
   1    34   1     0     1     1  4.08e+03   4.08e+03   120.0     
   1    35   1     0     1     1  4.20e+03   4.20e+03   120.0     
   1    36   1     0     1     1  4.32e+03   4.32e+03   120.0     
   1    37   1     0     1     1  4.44e+03   4.44e+03   120.0     
   1    38   1     0     1     1  4.56e+03   4.56e+03   120.0     
   1    39   1     0     1     1  4.68e+03   4.68e+03   120.0     
   1    40   1     0     1     1  4.80e+03   4.80e+03   120.0     
   1    41   1     0     1     1  4.92e+03   4.92e+03   120.0     
   1    42   1     0     1     1  5.04e+03   5.04e+03   120.0     
   1    43   1     0     1     1  5.16e+03   5.16e+03   120.0     
   1    44   1     0     1     1  5.28e+03   5.28e+03   120.0     
   1    45   1     0     1     1  5.40e+03   5.40e+03   120.0     
   1    46   1     0     1     1  5.52e+03   5.52e+03   120.0     
   1    47   1     0     1     1  5.64e+03   5.64e+03   120.0     
   1    48   1     0     1     1  5.76e+03   5.76e+03   120.0     
   1    49   1     0     1     1  5.88e+03   5.88e+03   120.0     
   1    50   1     0     1     1  6.00e+03   6.00e+03   120.0     
   1    51   1     0     1     1  6.12e+03   6.12e+03   120.0     
   1    52   1     0     1     1  6.24e+03   6.24e+03   120.0     
   1    53   1     0     1     1  6.36e+03   6.36e+03   120.0     
   1    54   1     0     1     1  6.48e+03   6.48e+03   120.0     
   1    55   1     0     1     1  6.60e+03   6.60e+03   120.0     
   1    56   1     0     1     1  6.72e+03   6.72e+03   120.0     
   1    57   1     0     1     1  6.84e+03   6.84e+03   120.0     
   1    58   1     0     1     1  6.96e+03   6.96e+03   120.0     
   1    59   1     0     1     1  7.08e+03   7.08e+03   120.0     
   1    60   1     0     1     1  7.20e+03   7.20e+03   120.0     
                          
 THE ANALYSIS HAS COMPLETED SUCCESSFULLY
